examples/media.pwf
TITU
ONS PDPM Maio 2026 - MEDIA                                                      
DAGR
(AG (         D E S C R I C A O        )
  6 SUBMERCADOS DO SIN                   
(ID O (       Nome de Identificacao      )
  1   SUDESTE/CENTRO-OESTE                 
  2   SUL                                  
  3   NORDESTE                             
  4   NORTE                                
FAGR
99999
DOPC IMPR
(Op) E (Op) E (Op) E (Op) E (Op) E (Op) E (Op) E (Op) E (Op) E (Op) E
STEP L NEWT L RCVG L RMON L FILE L SUBS L CONT L NOVO L CELO L MFCT L
AREG L STPO L VLCR L PMIN L CPHS L INMN L IANG L UNPG L
99999
DCTE
(Mn) ( Val) (Mn) ( Val) (Mn) ( Val) (Mn) ( Val) (Mn) ( Val) (Mn) ( Val) 
BASE   100. DASE   100. TEPA    .01 EXST    .04 TETP     5. TBPA     5.
TLPP     1. TEPR    .01 QLST    .04 TLPR    .01 TLPQ     2. TSBZ    .01
TSBA     5. ASTP    .05 VSTP     5. TLVC    .05 TLTC    .01 TSFR  .1E-7
ZMAX   500. TLPV     .5 VDVM   200. VDVN    40. TUDC   .001 TADC    .01
PGER    30. TPST    .02 VFLD    70. ZMIN  .0001 HIST    470 LFIT     10
ACIT    100 LFCV      1 DCIT     10 VSIT     10 LPIT     50 LFLP     10
PDIT     10 LCRT    200 LPRT     60 CSTP     5. ASDC     1.
ICIT     50 DMAX      5 FDIV     2. ICMN    .05 VART     5. TSTP     32
ICMV     .5 APAS    90. CPAR    70. VAVT     2. VAVF     5. VMVF    15.
VPVT     2. VPVF     5. VPMF    10. VSVF    20. VINF     1. VSUP     1.
TLSI     0. NDIR    20. STTR     5. TRPT   100. STIR     1. BFPO     1.
LFPO     .1 TLMT     0. TLMF     0. TLMG     0. PARS    10.            
99999
DBAR
(Num)OETGb(   nome   )Gl( V)( A)( Pg)( Qg)( Qn)( Qm)(Bc  )( Pl)( Ql)( Sh)Are(Vf)M(1)(2)(3)(4)(5)(6)(7)(8)(9)(10
   10 L1 VANGRA1UNE001 51001-53.     9.576   0.   0.                     2211000                  1                
   11 L1 VANGRA2UNE001 5 997-53.     -19.3   0.   0.                     2211000                  1                
   12 L1 VLCBARRUHE004 5 998-54.     -304.   0.   0.                     2041000                  1                
   13 L1 TLCBARRSIN002 5 993-55.     -170.   0.   0.                     2041000                  1                
   14 L1 VFUNIL-UHE002 5 967-64.     -75.6   0.   0.                     2251000                  1                
   16 L1 VFURNASUHE006 51035-60.     -207.   0.   0.                     1891000                  1                
   17 L1 TFURNASSIN004 51035-60.     -142.   0.   0.                     1891000                  1                
   18 L1 VITUMBIUHE003 5 985-30.     -218.   0.   0.                     1881000                  1                
   19 L1 TITUMBISIN003 5 994-38.     -221.   0.   0.                     1881000                  1                
   20 L1 VMARIMBUHE006 51023-42.     -487.   0.   0.                     1881000                  1                
   21 L1 VMANSO-UHE002 5 998-13.     6.679   0.   0.                     1371000                  1                
   22 L1 VM.MORAUHE004 51011-55.     -56.8   0.   0.                     1891000                  1                
   23 L1 TCBRAV-SIN001 51004-29.     -5.13   0.   0.                     1491000                  1                
   24 L1 VM.MORBUHE003 5 977-55.     -4.37   0.   0.                     2081000                  1                
   28 L1 VPCOLOMUHE003 51000-62.     14.84   0.   0.                     2081000                  1                
   30 L1 VSCRU19UTE000 5 993-65.     -74.4   0.   0.                     2241000                  1                
   31 L1 VSCRU31UT3001 5 993-65.     -23.4   0.   0.                     2241000                  1                
   32 L  VSCRU16UTE002 51003-56.        0.                               2241000                  1                
   35 L1 VCORUMBUHE002 5 982-36.     -56.9   0.   0.                     1481000                  1                
   36 L1 VS.MESAUHE002 5 985-34.     -294.   0.   0.                     1471000                  1                
   37 L1 TS.MESASIN001 5 981-36.     -168.   0.   0.                     1471000                  1                
   38 L1 NGRAJA2SIN001 51014-70.     -70.7   0.   0.                     2211000                  1                
   41 L1 TVITOR2SIN001 51018-65.      -30.   0.   0.                     2341000                  1                
   44 L1 NGRAJA1SIN001 51014-70.     -71.2   0.   0.                     2211000                  1                
   47 L1 TVITOR1SIN001 51019-65.     -31.6   0.   0.                     2341000                  1                
   48 L1 QIBIUNASIN004 5 977-70.     -183.   0.   0.    86               2041000                  1                
   50 L1 QTPRETOSIN001 5 983-71.     -69.5   0.   0.                     2011000                  1                
   52 L  EGNA-I--RJ345 51084-71.                                         2221000                  1                
   53 L1 QGNA1G-UTE000 51016-71.     -45.9   0.   0.                     2221000                  1                
   54 L1 QGNA1V-UTE000 51016-71.     -68.3   0.   0.                     2221000                  1                
   56 L  IIVAIP3-PR069 6 949-56.                                         2011000                  1                
   57 L  IIVAIP2-PR069 6 945-56.                                         201 960                  1                
   58 L  UIVAIP2-PR000 61067-56.                                         201 960                  1                
   59 L  UIVAIP3-PR000 61064-56.                                         2011000                  1                
   60 L  AF.IGUA-PR765 11004-47.                                         2011000                  1                
   61 L  CFOZ60--PR500111041-44.                                         2401000                  1                
   62 L  AIV-FZ1CAP765 11070-61.                                         2011000                  1                
   63 L  AIV-FZ2CAP765 11070-61.                                         2011000                  1                
   64 L  AIV-FZ3CAP765 11067-61.                                         2011034                  1                
   65 L  AIVAIPO-PR765 11058-55.                                         2011000                  1                
   66 L  BIVAIPA-PR525 21024-56.                                         1011000                  2                
   67 L  IIVAIP1-PR069 6 894-56.                            .24   0.     2011000                  1                
   68 L  UIVAIP1-PR000 61070-56.                                         2011000                  1                
   69 L  AIV-IT1CAP765 11053-50.                                         2011000                  1                
   70 L  AIV-IT2CAP765 11053-50.                                         2011000                  1                
   71 L  AIV-IT3CAP765 11053-51.                                         2011014                  1                
   72 L  AITABER-SP765 11055-60.                                         2011000                  1                
   73 L  AIT-TP1CAP765 11021-54.                                         2011000                  1                
   74 L  AIT-TP2CAP765 11021-54.                                         2011000                  1                
   75 L  AIT-TP3CAP765 11018-54.                                         2011000                  1                
   76 L  ATPRETO-SP765 11007-65.                                         2011000                  1                
   77 L  CTPRETO-SP500 31063-65.                                         2021000                  1                
   78 L  ETPRETO-SP345 51010-70.                                         2041000                  1                
   79 L  ITPRETO-SP069 6 948-65.                                         2011000                  1                
   80 L  UTPRET3-SP000 61008-65.                                         2011000                  1                
   81 L  UTPRET4-SP000 61001-71.                                         2011000                  1                
   82 L  ETPRET2-SP345 51012-70.                                         2041000                  1                
   84 L  GRESEN2-RJ138 5 997-66.                                         2251000                  1                
   85 L  CFOZ50--PR500 31083-1.9        0.                  60.   0.     2411000                  1                
   86 L1 EIBIUNA-SP345 51030-70.     -2138   0.   0.                     2041000                  1                
   87 L  CRESEND-RJ500 31093-64.                                         2211000                  1                
   90 L  EVIANA--ES345 51082-63.                                         2341010                  1                
   91 L  NVIANT1-ES013 61083-66.                                         2341010                  1                
   92 L  CSB-SM1CAP500 31072-41.                                         1471000                  1                
   93 L  CSB-SM2CAP500 31086-40.                                         1471000                  1                
   94 L  CSB-SM3CAP500 31088-40.                                         1471000                  1                
   95 L  NVIANT2-ES013 61083-66.                                         2341010                  1                
   96 L  NVIANT3-ES013 61083-66.                                         2341000                  1                
   99 L  CAS-AR1-SP500 31095-50.                                         2021000                  1                
  100 L  CMARIMB-MG500 31073-42.                                         1881000                  1                
  101 L  CARARAQ-SP500 31081-48.                                         2021000                  1                
  102 L  CP.CALD-MG500 31080-57.                                         1881000                  1                
  103 L  CCAMPIN-SP500 31088-62.                                         2021000                  1                
  104 L  CC.PAUL-SP500 31104-63.                                         2021000                  1                
  105 L  CANGRA--RJ500 31082-60.                           119.   0.     2211000                  1                
  106 L  CADRIAN-RJ500 31085-66.                                         2211000                  1                
  107 L  CGRAJAU-RJ500 31082-68.                                         2211000                  1                
  108 L  CS.JOSE-RJ500 31079-67.                                         2211000                  1                
  110 L  UGR1T52-RJ000 61035-70.                                         2211000                  1                
  112 L  CBA-IB1-PR500 31124-66.                                         1011000                  2                
  113 L  CBA-IB2-PR500 31124-66.                                         1011000                  2                
  114 L  CBA-IT1-PR500 31125-66.                                         1011000                  2                
  115 L  CBA-IT1CAP500 31056-70.                                         1011000                  2                
  116 L  GIMBTAP-RJ138 51072-73.                                         2261000                  1                
  117 L  CCAMPO2-RJ500 31129-57.                                         2211000                  1                
  118 L  UBANDT4-GO000 6 987-41.                                         1481000                  1                
  119 L  NBANDT4-GO013 6 987-41.                                         1481000                  1                
  120 L  EP.CALD-MG345 51001-64.                                         1891000                  1                
  121 L  UPCAT51-MG000 6 991-65.                                         1881000                  1                
  122 L  CIBIUNA-SP500 31090-67.                                         2021000                  1                
  123 L  ECAMPIN-SP345 5 989-66.                                         2041000                  1                
  124 L  UCAMP51-SP000 61037-67.                                         2021000                  1                
  125 L  CIB-BA1CAP500 31055-69.                                         2021000                  1                
  126 L  EGUARUL-SP345 51047-73.                                         2041000                  1                
  127 L  EMO-RL1-SP345 51048-71.                                         2041000                  1                
  128 L  EMO-RL2-SP345 51048-71.                                         2041015                  1                
  129 L  EMOGI---SP345 51045-71.                                         2041000                  1                
  130 L  CIB-BA2CAP500 31055-68.                                         2021000                  1                
  131 L  EM.MORA-MG345 51042-57.                                         1891000                  1                
  133 L  UADRT1A-RJ000 61049-72.                                         2221000                  1                
  134 L  ELCBARR-SP345 51038-55.                                         2041000                  1                
  135 L  UJACT1A-RJ000 61025-70.                                         2221000                  1                
  136 L  EFURNAS-MG345 51061-60.                                         1891000                  1                
  137 L  UJACT2A-RJ000 61026-70.                                         2221000                  1                
  138 L  EITUTIN-MG345 51068-67.                                         1891000                  1                
  139 L  UADRT51-RJ000 61073-68.                                         2211014                  1                
  140 L  EADRIAN-RJ345 51020-69.                                         2221000                  1                
  141 L  UADRT53-RJ000 61096-70.                                         2211000                  1                
  142 L  UADRT55-RJ000 61093-69.                                         2211060                  1                
  143 L  UADRT2B-RJ000 61050-72.                                         2221030                  1                
  144 L  EJACARE-RJ345 51048-69.                                         2221000                  1                
  145 L  UADRT1B-RJ000 61050-72.                                         2221000                  1                
  146 L  UADRT2A-RJ000 61050-72.                                         2221000                  1                
  147 L  ECAMPOS-RJ345 51090-71.                                         2221000                  1                
  148 L  UCAMPO1-RJ000 61098-72.                                         2221000                  1                
  149 L  EVITORI-ES345 51073-65.                                         2341000                  1                
  150 L  UVITAT1-ES000 61066-68.                                         2341000                  1                
  152 L  UVITAT2-ES000 61066-68.                                         2341000                  1                
  153 L  UVITAT3-ES000 61066-68.                                         2341000                  1                
  154 L  NVITAT2-ES013 61066-68.                                         2341000                  1                
  155 L  NVITAT3-ES013 61066-68.                                         2341000                  1                
  156 L  NVITAT4-ES013 61067-68.                                         2341000                  1                
  158 L  UVITAT4-ES000 61067-68.                                         2341000                  1                
  159 L  NJA-R30-RJ013 61026-70.                                         2221000                  1                
  160 L  NJB-R60-RJ013 61025-70.                                         2221000                  1                
  161 L  FMO-FCE-SP230 5 995-72.                                         2051000                  1                
  162 L  UCAMAT1-SP000 61016-68.                                         2041000                  1                
  163 L  NCAMPI1-SP013 6 986-68.                                         2041000                  1                
  164 L  UPCAT02-MG000 61101-65.                                         1891000                  1                
  165 L  NP.CAL2-MG013 61036-65.                                         1891000                  1                
  166 L  UJACT1B-RJ000 61025-70.                                         2221000                  1                
  167 L  NJA-R60-RJ013 61025-70.                                         2221000                  1                
  169 L GCSJOSE2-RJ138 51018-70.                                         2241000                  1                
  170 L  GP.CALD-MG138 51035-65.                                         1961000                  1                
  171 L  GCAMPI1-SP138 51087-69.                                         2071000                  1                
  172 L  GIMBARE-RJ138 51032-72.                                         2261000                  1                
  173 L GCADRIAN-RJ138 51032-72.                                         2261000                  1                
  174 L GCR.LEAO-RJ138 51087-75.                                         2281000                  1                
  175 L GCCAMPOS-RJ138 51000-72.                                         2291000                  1                
  176 L  UCAMP54-SP000 61034-67.                                         2021000                  1                
  177 L  GVITOR1-ES138 51004-68.                                         2361000                  1                
  178 L GCGRAJAU-RJ138 51001-70.                                         2241000                  1                
  179 L  UGR2T54-RJ000 61035-70.                                         2211000                  1                
  180 L GCJACARE-RJ138 51008-70.                                         2241000                  1                
  181 L  GANGDEF-RJ138 51005-66.        0.                               2211037                  1                
  182 L  GFUNIL--RJ138 51012-66.                                         2251000                  1                
  183 L  GC.PAUL-SP138 5 998-64.                                         2141000                  1                
  184 L GCS.CRUZ-RJ138 51015-65.                                         2241000                  1                
  185 L  GANGRA--RJ138 51075-56.        0.                               2251000                  1                
  186 L  NCAMP54-SP013 61034-67.                                         2021000                  1                
  187 L  GM.MORA-MG138 51034-57.                                         1951000                  1                
  189 L  UBGERT1-DF000 61090-46.                                         1591000                  1                
  190 L  GP.COL--MG138 5 993-63.        0.                               2081000                  1                
  192 L  NCAMPO1-RJ013 61098-72.                                         2221000                  1                
  194 L  NADRT55-RJ013 61001-69.                                         2211080                  1                
  195 L  NADRT53-RJ013 61005-70.                                         2211000                  1                
  196 L  NCAMP51-SP013 6 951-67.                                         2021000                  1                
  197 L  NADRT51-RJ013 61073-68.                                         2211014                  1                
  198 L  NPCALAT-MG013 6 909-65.                                         1881000                  1                
  199 L  NVITAT1-ES013 61066-68.                                         2341000                  1                
  200 L  UUCAMP1-RJ000 61083-74.                                         2291000                  1                
  201 L  VRSIL-1UTE000 51083-74.                                         2291000                  1                
  202 L  UUCAMP2-RJ000 61083-74.                                         2291000                  1                
  203 L  VRSIL-2UTE000 51083-74.                                         2291000                  1                
  204 L  NADRT1B-RJ013 61050-72.                                         2221000                  1                
  205 L  NADRT2A-RJ013 61050-72.                                         2221000                  1                
  206 L  NADRT2B-RJ013 61050-72.                                         2221030                  1                
  208 L  NBGERT1-DF013 61090-46.                                         1591000                  1                
  209 L  NADRT1A-RJ013 61049-72.                                         2221000                  1                
  210 L  CITUMBI-MG500 31075-38.                                         1881000                  1                
  211 L  UCAMPO2-RJ000 61098-72.                                         2221000                  1                
  212 L  NCAMPO2-RJ013 61098-72.                                         2221000                  1                
  213 L  EMARIMB-MG345 51026-44.                                         1891000                  1                
  214 L  UMARIMB-MG000 61078-44.                                         1881000                  1                
  216 L  EP.COL--MG345 51048-46.                                         1891000                  1                
  217 L  EITUMBI-MG345 51032-38.                                         1891000                  1                
  218 L  EBANDEI-GO345 51005-40.                                         1481000                  1                
  219 L  EB.SUL--DF345 51027-40.                                         1581000                  1                
  220 L  ECORUMB-GO345 51034-38.                                         1481000                  1                
  221 L  LB.GERA-DF034 51057-46.                                         160 991                  1                
  222 L  UBSULT6-DF000 61032-42.                                         1581000                  1                
  223 L  UBANDT1-GO000 6 986-41.                                         1481000                  1                
  224 L  UBANDT2-GO000 6 985-41.                                         148 987                  1                
  225 L  FITUMBI-MG230 51007-37.                                         1901000                  1                
  226 L  FBANDEI-GO230 51014-41.                                         1491000                  1                
  227 L  FB.GERA-DF230 51032-42.                                         1591000                  1                
  228 L  FB.SUL--DF230 51031-41.                                         1591000                  1                
  229 L  FB.ALTO-GO230 51002-45.                                         1491000                  1                
  230 L  FS.MESA-GO230 51005-35.                                         1491000                  1                
  231 L  FR.VERD-GO230 51026-33.                                         1491000                  1                
  232 L  NBSULT6-DF013 61032-42.                                         1581000                  1                
  233 L  CSAMAMB-DF500 31088-38.                                         1571000                  1                
  234 L  ESAMAMB-DF345 5 998-40.                                         1581000                  1                
  235 L  CS.MESA-GO500 31075-36.                                         1471000                  1                
  236 L  GB.SUL--DF138 51010-43.                                         1601000                  1                
  237 L  GSAMAMB-DF138 5 997-42.                                         1601000                  1                
  238 L  GR.VERD-GO138 5 994-34.                                         1531000                  1                
  239 L  GS.MESA-GO138 51040-36.                                         1541000                  1                
  240 L  URVERT1-GO000 6 988-34.                                         1491000                  1                
  241 L  NRVERT1-GO013 6 988-34.                                         1491000                  1                
...
99999
DLIN
(De )d O d(Pa )NcEPM( R% )( X% )(Mvar)(Tap)(Tmn)(Tmx)(Phs)(Bc  )(Cn)(Ce)Ns(Cq)(1)(2)(3)(4)(5)(6)(7)(8)(9)(10 (U) Uop
   38       17954         3.0195         1.                     200.200.  200.                                 1   1
   44       11052             3.         1.                     200.200.  200.                                 1   1
   50        81 4          2.498         1.                     500.500.  500.                                 1   1
   52       147 1      .16 1.64627.714                          10581539  1539
   52       147 2      .16 1.646 27.71                          10581539  1539
   53        52 1          3.255        .95                     10351242  1449                                 1   1
   54        52 1         2.1898        .95                     560.672.  784.                                 1   1
   56        59 3          3.385         1.                     550.550.  550.                                 1   1
   57        58 2          3.606         1.                     550.550.  550.                                 1   1
   60        62 1     .076  1.85 927.8                          41334052  4052
   60        63 2     .076  1.85 929.1                          41334174  4174
   60        64 3     .082 1.899 954.5                          36834052  4052
   60     43810 2           .806      .9524                     15721815  1792                                 1   1
   60     43862 1           .743      .9524                     15721729  1792                                 1   1
   60     43899 3            .74      .9524                     15721729  1880                                 1   1
   60     43915 4           .746      .9524                     15721815  1792                                 1   1
   60     43921 5           .731      .9524                     16501885  2309                                 1   1
   61     43421 1     .116 1.999 245.8                          29103624  3623
   61     43422 2     .116 1.999 245.8                          29103624  3623
   61     43810 2          -.164         1.                     15721815  1792                                 1   1
   61     43862 1          -.121         1.                     15721729  1792                                 1   1
   61     43899 3          -.117         1.                     15721729  1880                                 1   1
   61     43915 4          -.123         1.                     15721815  1792                                 1   1
   61     43921 5          -.114         1.                     16501885  2309                                 1   1
   65        58 2           .823         1.                     16501815  1928                                 1   1
   65        59 3           .773         1.                     16921831  1947                                 1   1
   65        68 1           .843         1.                     16501815  2047                                 1   1
   66        68 1           -.17      .9665 .8381.053        99916501815322047                                 1   1
   67        68 1          3.649         1.                     550.550.  550.                                 1   1
   72        69 1 T   .064  1.53  760.                          41334174  4174
   72        70 2     .063  1.53 755.7                          41334174  4174
   72        71 3     .064  1.54  760.                          41334052  4052
   76        73 1 T   .072  1.75 877.5                          36834174  4174
   76        74 2     .072  1.75  873.                          41334174  4174
   76        75 3 T   .078  1.79 898.2                          41334052  4052
   76        80 3           .697         1.                     16501815  1995                                 1   1
   76        81 4          1.028         1.                     15001650  1650                                 1   1
   76     41512 5           .993         1.                     15001650  1650                                 1   1
   76     41514 6           .983         1.                     15001650  1650                                 1   1
   76     41516 7           .931         1.                     15001800  1800                                 1   1
   76     41518 1           .839         1.                     16501650  1650                                 1   1
   76     41520 2           .817         1.                     16501815  1815                                 1   1
   77        80 3           -.03      1.105  .88 1.16         7716501815321995                                 1   1
   77       104 1 T   .167  2.54 216.6                          18552337  2337
   77       598 1 T   .106 1.441 133.4                          18552252  2252
   77      3383 1     .114 1.712259.62                          27282728  2728
   77     41518 1          -.165      1.105  .88 1.16         7716501650331650                                 1   1
   77     41520 2          -.162      1.105  .88 1.16         7716501815331815                                 1   1
   78        81 4          -.107      1.058 .8591.115         7815001650321650                                 1   1
   78       449 1 T  .0742 .6448 11.34                          11841184  1392
   78       449 2 T  .0742 .6448 11.34                          11841184  1392
   78       464 3 T  .1089  .973 17.07                          912.1103  1103
   78       471 1    .0922 .8014 14.08                          11841392  1392
   78       471 2    .0922 .8014  14.1                          11841392  1392
   78       474 1     .068  .944  21.2                          12801613  1613
   78     41512 5          -.093      1.058 .8591.115         7815001650331650                                 1   1
   78     41820 1     .001  .001                                99999999  9999
   78     41823 1     .001  .001                                99999999  9999
   79        80 3          3.545         1.                     550.550.  550.                                 1   1
   82        86 1 T   .187 2.602  60.1                          12801613  1613
   82       449 3 T    .06   .63 12.84                          13501350  1350
   82       449 4 T    .06   .63 12.84                          13501350  1350
   82     41514 6          -.092       1.06 .8591.115         8215001650331650                                 1   1
   82     41516 7          -.058       1.06 .8591.115         8215001800331800                                 1   1
   82     41821 1     .001  .001                                99999999  9999
   82     41822 1     .001  .001                                99999999  9999
   84      1780 1     .709 1.804   .46                          122.130.  130.
   84      1780 2     .709 1.804   .46                          122.130.  130.
   84     11797 1      .32  .813  .207                          122.130.  130.
   84     40401 2      .39  .991  .253                          122.130.  130.
   84     42417 5     .004-1.667         1.                     300.359.  419.                                 1   1
   85      1103 3 T  .0058.10069 10.04                          27283377  3377
   85      1103 4 T .00564.09795  9.69                          27283377  3377
   86        48 1         .71475       1.04                     10501050  1050                                 1   1
   86       474 1     .155 2.162  49.5                          12801613  1613
   86       488 1    .09481.4987 41.91                          20202390  2390
   86       488 2    .09481.4987 41.91                          20202390  2390
   86     41522 1           -.25       .977 .8951.048       -122750.750.33750.                                 1   1
   86     41524 2          -.254       .977 .8951.048       -122750.750.33750.                                 1   1
   86     41526 3           .236       .977 .8951.048       -122750.900.331050                                 1   1
   87     42417 5     .121 4.833      1.062   .9  1.1        -84300.359.21419.                                 1   1
   87     42426 1          8.333         1.                     150.180.  180.                                 1   1
   87     42428 2         11.458         1.                     120.144.  144.                                 1   1
   90      2608 1          4.847      1.005                     225.270.  304.                                 1   1
   90      2618 2          4.861      1.005                     225.270.  304.                                 1   1
   90      2628 3           4.65      1.005                     225.270.  304.                                 1   1
   90      3032 1 T   .225 2.468 41.54                          747.747.  747.
   90     42441 4          3.081      1.005                     400.480.  560.                                 1   1
   91      2608 1            9.7         1.                      75. 75.   75.                                 1   1
   95      2618 2          9.773         1.                      75. 75.   75.                                 1   1
   96      2628 3           9.83         1.                      75. 75.   75.                                 1   1
   99       101 1     .198 3.098 317.5                          20002000  2000
   99       556 1     .001  .001       1.05                     99999999  9999                                 1   1
  100        20 1          1.053         1.                     16201620  1620                                 1   1
  100       214 9          2.979         1.                     560.717.  717.                                 1   1
  100       535 1 T   .153 2.356 203.8                          17321732  1732
  100      3110 1    .12531.8381 160.4                          19922390  2390
  100      4598 1     .006  .097   7.4                          18552337  2337
  100      4598 2     .006  .086   7.2                          18552337  2337
  100      4598 3    .0064 .0824 7.176                          19922390  2390
  101       102 1     .156  2.46 208.5                          18552337  2337
  101       103 1      .15  2.39 202.6                          18552337  2337
  102       12151          2.911       1.05                     560.717.  717.                                 1   1
  102      1503 1     .129 1.993 167.7                          18552337  2337
  103       12451          2.946       1.05                     560.717.  717.                                 1   1
  103       17654         2.9116       1.05                     560.728.  728.                                 1   1
  103       609 1      .06  .946 76.26                          18552337  2337
  103      6609 1     .024  .368  31.7                          18552337  2337
  103      6609 2     .017  .26738.833                          24773464  3464
  104        87 1     .051  .782  66.5                          18552337  2337
  104       598 1     .075  1.15  98.9                          18552252  2252
  104       609 1     .148 2.347 193.3                          18552337  2337
  104      1503 1     .052  .792  66.5                          18552337  2337
  104      3010 1     .189 3.158 709.6                          24423464  3464
  104      3010 2     .189 3.158 709.6                          24423464  3464
  104      3383 1     .014  .205 30.35                          27282728  2728
  104      9626 1     .098  1.68  252.                          24732598  2598
  104     4166457         4.7375       1.05                     250.263.  270.                                 1   1
  104     4166659         4.9492       1.05                     250.270.  283.                                 1   1
  105        10 1           1.97      1.075                     777.777.  777.                                 1   1
  105        11 1            .95      1.075                     14771477  1477                                 1   1
  105       104 1     .093 1.456 122.5                          18552337  2337
  105      9601 1     .092 1.363 115.3                          18552337  2337
  105      9608 1 T   .101 1.518 127.8                          18552337  2337
  105     4240158          3.988       1.05                     400.400.  400.                                 1   1
  106       107 1     .033  .673 72.57                          25982598  2598
  106       108 1     .019  .389  42.1                          25982598  2598
  106       13951          1.962       1.05                     560.644.  672.                                 1   1
  106       14153          3.042       1.05                     560.672.  784.                                 1   1
  106       14255           2.93       1.05                     560.716.  716.                                 1   1
  106      9626 1     .012  .193 29.69                          24732598  2598
  107       11052          2.141       1.05                     600.720.  840.                                 1   1
  107       17954           2.15       1.05                     600.720.  840.                                 1   1
  107     4240756          2.142       1.05                     600.720.  840.                                 1   1
  107     4240858          2.114       1.05                     600.720.  840.                                 1   1
  108     4243111          2.327       1.05                     600.660.  684.                                 1   1
  108     4243212            2.3       1.05                     600.660.  684.                                 1   1
  108     4243313           2.27       1.05                     600.720.  840.                                 1   1
  108     4243414          2.288       1.05                     600.720.  840.                                 1   1
  112       895 1     .001  .001       1.05                     99999999  9999                                 1   1
  113       895 2     .001  .001       1.05                     99999999  9999                                 1   1
  114       895 1     .001  .001       1.05                     99999999  9999                                 1   1
  115      6609 1     .263  4.25  659.                          29102699  2699
  116       172 1D    .127  .713   .21                          146.207.  207.
  116       173 4 T   .635 3.565 1.048                          153.193.  193.
  117      4353 1     .131 2.346 348.3                          28023403  3403
  117      4353 2     .132  2.34 348.3                          28023403  3403
  119       118 4         15.049         1.                      75. 75.   75.                                 1   1
  120       12151          -.522      1.0721.009 1.11        120560.717.10717.                                 1   1
  120       126 1       .6  5.95  92.8                          776.977.  977.
  120       126 2     .606  6.02  93.8                          776.977.  977.
  120       164 2     .031 7.624       .957                     150.180.  210.                                 1   1
  120       697 1     .394  4.39 74.85                          853.1075  1075
  120     42000 1          7.754       .957                     150.160.  160.                                 1   1
  120     42002 3          8.027       .957                     150.161.  161.                                 1   1
  120     42004 4            7.2       .957                     150.150.  150.                                 1   1
  120     42006 5           4.54       .957                     225.270.  270.                                 1   1
  120     42008 6          4.556       .957                     225.270.  270.                                 1   1
  122      6609 1     .079 1.214 103.2                          18552337  2337
  122     41522 1         1.8016       1.05                     750.750.  750.                                 1   1
  122     41524 2         1.7995       1.05                     750.750.  750.                                 1   1
  122     41526 3         1.2804       1.05                     750.900.  1050                                 1   1
  123       120 1 T   .359 3.945  66.7                          853.1075  1075
  123       12451          -.528      1.009  .95 1.11        123560.717.17717.                                 1   1
  123       162 1          5.563      1.004                     149.176.  176.                                 1   1
  123       17654          -.413      1.009  .95 1.11        123560.728.17728.                                 1   1
  123     41504 2            5.6      1.004                     149.176.  176.                                 1   1
  123     41505 3         6.0166      1.004                     149.176.  181.                                 1   1
  123     41506 4         5.6033      1.004                     149.176.  181.                                 1   1
  123     41507 5           5.63      1.004                     149.194.  194.                                 1   1
  125       112 1     .308 3.958 444.8                          12992252  2252
  126        86 1     .109 1.826  51.2                          17072150  2150
  126        86 2     .109 1.824  51.2                          17072150  2150
  126       123 1     .252 2.761  46.5                          853.1075  1075
  126       442 1     .116 1.132  17.7                          776.977.  977.
  129       442 1 T   .067   .66  10.1                          776.977.  977.
  129     41660 1          2.436         1.                     500.590.  615.                                 1   1
  129     41662 2          2.339         1.                     500.590.  615.                                 1   1
  130       113 2     .308 3.958 444.8                          12992252  2252
  131        22 1           5.54         1.                     378.378.  378.                                 1   1
  131      3012 1     .038  .427 6.673                          853.1075  1075
  131     4202211          2.686         1.                     400.480.  560.                                 1   1
  131     4202413          2.526         1.                     400.480.  560.                                 1   1
  134        12 1          1.335       .999                     11801180  1180                                 1   1
  134        13 1           2.67       .999                     99999999  9999                                 1   1
  134       120 1      .56  6.16 105.3                          853.1075  1075
  134       120 2      .55  6.13 107.7                          853.1075  1075
  134      3012 1     .071  .755 12.92                          853.1075  1075
  134      3012 2     .071  .755 12.79                          853.1075  1075
  136        16 1           1.28         1.                     12801280  1280                                 1   1
  136        17 1           1.92         1.                     99999999  9999                                 1   1
  136       120 1 T    .44   4.3  66.6                          776.977.  977.
  136       120 2 T    .44  4.33  66.6                          776.977.  977.
  136       131 1     .358 3.383 52.96                          776.956.  956.
  136       138 1      .65  6.46 100.8                          776.977.  977.
  136       367 1 T    .22  2.18  33.4                          776.977.  977.
  136       367 2 T    .18  1.79 34.29                          11321132  1132
  136      4360 1     .456 4.944 83.45                          853.1075  1075
  138       331 1    .42234.0862 73.67                          11591159  1159
  138      9013 1     .325 3.207 58.69                          11231383  1383
...
99999
DCSC
(De ) O  (Pa )NcEPB      (Xmin)(Xmax)( Xv )C ( Vsp) (Ext)Nst(Cn)(Ce)(Cq)(1)(2)(3)(4)(5)(6)(7)(8)(9)(10
   62       65 1          -.749 -.749 -.749X  -.749    62   999999999999
   63       65 2          -.749 -.749 -.749X  -.749    63   999999999999
   64       65 3          -.749 -.749 -.749X  -.749    64   999999999999
   65       69 1          -.778 -.778 -.778X  -.778    65   999999999999
   65       70 2          -.778 -.778 -.778X  -.778    65   999999999999
   65       71 3          -.778 -.778 -.778X  -.778    65   999999999999
   72       73 1          -.915 -.915 -.915X  -.915    72   999999999999
   72       74 2          -.915 -.915 -.915X  -.915    72   999999999999
   72       75 3          -.915 -.915 -.915X  -.915    72   999999999999
   78       82 1                       1.26X   1.26    78   999999999999
  114      115 1         -2.124-2.124-2.124X -2.124   114   999999999999
  122      125 1         -2.051-2.051-2.051X -2.051   122   999999999999
  122      130 2         -2.051-2.051-2.051X -2.051   122   999999999999
  127      129 1                        .76X    .76   127   999999999999
  128      129 2                        .76X    .76   128   999999999999
  225     4504 1          -5.93 -5.93 -5.93X  -5.93   225   999999999999
  225     4505 2          -9.53 -9.53 -9.53X  -9.53   225   999999999999
  231     4507 1          -5.93 -5.93 -5.93X  -5.93   231   999999999999
  231     4511 2         -11.27-11.27-11.27X -11.27   231   999999999999
  233       92 1          -1.86 -1.86 -1.86X  -1.86   233   999999999999
  233       93 2          -1.27 -1.27 -1.27X  -1.27   233   999999999999
  233       94 3          -1.27 -1.27 -1.27X  -1.27   233   999999999999
  235     7236 1          -.637 -.637 -.637X  -.637   235   999999999999
  235     7237 2          -.637 -.637 -.637X  -.637   235   999999999999
  277    45073 1                      1.575X  1.575   277   999999999999
  277    45074 2                      1.575X  1.575   277   999999999999
  299     3005 1          -.985 -.985 -.986X  -.986   299   999999999999
47222     6445 2          -.554 -.554 -.554X  -.554 47222   999999999999
 3007     3006 1          -.985 -.985 -.986X  -.986  3007   999999999999
 3007     3050 1         -.8847-.8847 -.856X  -.856  3007   999999999999
 4502     4540 2         -6.127-6.127-6.127X -6.127  4502   999999999999
 4502     4541 1         -5.959-5.959-5.959X -5.959  4502   999999999999
 4510      231 1          -6.51 -6.51 -6.51X  -6.51  4510   999999999999
 4522     4524 1          -5.73 -5.73 -5.73X  -5.73  4522   999999999999
 4531     4588 3         -1.355-1.355-1.355X -1.355  4531   999999999999
 4565     4496 3          -1.47 -1.47 -1.47X  -1.47  4565   999999999999
 4565     4497 2         -1.629-1.629-1.629X -1.629  4565   999999999999
 4565     4563 1         -1.628-1.628-1.628X -1.628  4565   999999999999
 4574     4565 3         -1.515-1.515-1.515X -1.515  4574   999999999999
 4578     4565 1         -2.064-2.064-2.064X -2.064  4578   999999999999
 4579     4565 2         -2.064-2.064-2.064X -2.064  4579   999999999999
 4581    46496 2                     10.502X 10.502  4581   999999999999
 4586    46495 1                     10.502X 10.502  4586   999999999999
 5158     5157 6 T                    16.28X  16.28  5158   999999999999
 5160     5159 7 T                    16.28X  16.28  5160   999999999999
 5166     6715 5 T                    16.28X  16.28  5166   999999999999
 5436     5435 3         -1.756-1.756-1.756X -1.756  5436   999999999999
 5436     5437 1         -1.908-1.908-1.908X -1.908  5436   999999999999
 5436     5575 2         -1.908-1.908-1.908X -1.908  5436   999999999999
 5436     5576 4         -1.756-1.756-1.756X -1.756  5436   999999999999
 5570     5577 2         -1.539-1.539-1.539X -1.539  5570   999999999999
 5580     6517 1         -1.096-1.096-1.096X -1.096  5580   999999999999
 6082    47222 5 T        -.598 -.598 -.598X  -.598  6082   999999999999
 6360     6080 5          -.598 -.598 -.598X  -.598  6360   999999999999
 6360     6443 2          -.554 -.554 -.554X  -.554  6360   999999999999
 6360     6446 2           -.85  -.85  -.85X   -.85  6360   999999999999
 6400     6507 4           -.72  -.72  -.72X   -.72  6400   999999999999
 6400     6509 3           -.72  -.72  -.72X   -.72  6400   999999999999
 6410     6430 1                         .8X     .8  6410   999999999999
 6440     7306 1          -1.58 -1.58 -1.58X  -1.58  6440   999999999999
 6444     6442 1         -.8847-.8847-.8847X -.8847  6444   999999999999
 6489     6487 1          -5.53 -5.53 -5.53X  -5.53  6489   999999999999
 6700     6701 1           -.79  -.79  -.79X   -.79  6700   999999999999
 6700     6702 1         -1.096-1.096-1.096X -1.096  6700   999999999999
 6700     6703 2           -.79  -.79  -.79X   -.79  6700   999999999999
 7100     7101 1          -.953 -.953 -.953X  -.953  7100   999999999999
 7100     7102 1          -.953 -.953 -.953X  -.953  7100   999999999999
 7100     7103 2           -.95  -.95  -.95X   -.95  7100   999999999999
 7100     7104 2           -.95  -.95  -.95X   -.95  7100   999999999999
 7100     7105 3          -.952 -.952 -.952X  -.952  7100   999999999999
 7100     7235 1          -.536 -.536 -.536X  -.536  7100   999999999999
 7113     7238 1         -1.412-1.412-1.412X -1.412  7113   999999999999
 7190     7197 2           -.85  -.85  -.85X   -.85  7190   999999999999
 7200     7201 1           -.95  -.95  -.95X   -.95  7200   999999999999
 7200     7203 2           -.95  -.95  -.95X   -.95  7200   999999999999
 7200     7209 3          -.952 -.952 -.952X  -.952  7200   999999999999
 7300     7301 1           -.95  -.95  -.95X   -.95  7300   999999999999
 7300     7302 1           -.95  -.95  -.95X   -.95  7300   999999999999
 7300     7303 2           -.95  -.95  -.95X   -.95  7300   999999999999
 7300     7304 2           -.95  -.95  -.95X   -.95  7300   999999999999
 7300     7305 3          -.952 -.952 -.952X  -.952  7300   999999999999
 7591     5590 1         -1.588-1.588-1.588X -1.588  7591   999999999999
 7593     5590 2         -1.588-1.588-1.588X -1.588  7593   999999999999
 8100     8101 1         -1.971-1.971-1.971X -1.971  8100   999999999999
 8100     8102 2         -1.971-1.971-1.971X -1.971  8100   999999999999
 8100     8103 1          -.911 -.911 -.911X  -.911  8100   999999999999
 8100     8104 2          -.911 -.911 -.911X  -.911  8100   999999999999
 8200     8201 1           -.91  -.91  -.91X   -.91  8200   999999999999
 8200     8202 2           -.91  -.91  -.91X   -.91  8200   999999999999
 8200     8203 1         -1.273-1.273-1.273X -1.273  8200   999999999999
 8200     8204 2         -1.273-1.273-1.273X -1.273  8200   999999999999
 8300     8301 1         -1.273-1.273-1.273X -1.273  8300   999999999999
 8300     8302 2         -1.273-1.273-1.273X -1.273  8300   999999999999
 8300     8303 1         -1.219-1.219-1.219X -1.219  8300   999999999999
 8300     8304 2         -1.219-1.219-1.219X -1.219  8300   999999999999
 8400     8401 1         -1.219-1.219-1.219X -1.219  8400   999999999999
 8400     8402 2         -1.219-1.219-1.219X -1.219  8400   999999999999
 8400     8403 1          -.832 -.832 -.832X  -.832  8400   999999999999
 8400     8404 2          -.832 -.832 -.832X  -.832  8400   999999999999
 8500     8405 1          -.832 -.832 -.832X  -.832  8500   999999999999
 8500     8406 2          -.832 -.832 -.832X  -.832  8500   999999999999
 9245    10617 1                        30.X    30.  9245   999999999999
 9301    10618 2                        30.X    30.  9301   999999999999
 9753     1309 6                     13.127X 13.127  9753   999999999999
 9754     1343 7                     13.127X 13.127  9754   999999999999
41001    41028 1                     15.753X 15.753 41001   999999999999
41002    41029 2                     15.753X 15.753 41002   999999999999
41003    41072 1                        21.X    21. 41003   999999999999
41006    10701 2                      15.59X  15.59 41006   999999999999
41007    10702 3                      15.76X  15.76 41007   999999999999
41132    10703 3                     16.541X 16.541 41132   999999999999
43166    10619 3                     17.328X 17.328 43166   999999999999
43167    10620 4                     15.753X 15.753 43167   999999999999
43672     4591 1         -1.652-1.652-1.652X -1.652 43672   999999999999
43673     4595 2         -1.256-1.256-1.256X -1.256 43673   999999999999
43797     6898 1          -9.88 -9.88 -9.88X  -9.88 43797   999999999999
43798     6899 2          -9.88 -9.88 -9.88X  -9.88 43798   999999999999
43799     6934 3         -9.565-9.565-9.565X -9.565 43799   999999999999
43800     4508 1          -6.51 -6.51 -6.51X  -6.51 43800   999999999999
43952     5572 5          -1.88 -1.88 -1.88X  -1.88 43952   999999999999
43953     5574 6          -2.11 -2.11 -2.11X  -2.11 43953   999999999999
43954     6513 1          -1.37 -1.37 -1.37X  -1.37 43954   999999999999
43955     6512 1          -1.37 -1.37 -1.37X  -1.37 43955   999999999999
43956     6515 2          -1.14 -1.14 -1.14X  -1.14 43956   999999999999
43957     6514 2          -1.14 -1.14 -1.14X  -1.14 43957   999999999999
43958     6510 1           -.88  -.88  -.88X   -.88 43958   999999999999
43959     6511 2           -.72  -.72  -.72X   -.72 43959   999999999999
45088     8855 1                     10.502X 10.502 45088   999999999999
45089     8856 1                     10.502X 10.502 45089   999999999999
  328      330 7                        6.3X    6.3   328   999999999999
99999
DBSH
(NFr) O (NTo) Nc C (Vmn (Vmx Bctrl (Qini) T A (Extr
   56            D 0400 1900    56  -360. C         
(G  O E (U) UOp (Sht ) M
10        2   2  -180. S
FBAN
(NFr) O (NTo) Nc C (Vmn (Vmx Bctrl (Qini) T A (Extr
   57            D 0400 1900    57  -360. C         
(G  O E (U) UOp (Sht ) M
10        3   2  -180. S
FBAN
(NFr) O (NTo) Nc C (Vmn (Vmx Bctrl (Qini) T A (Extr
   60      62  1 F 0900 1046    60  -330. C      60 
(G  O E (U) UOp (Sht ) M
10        1   1  -330. S
FBAN
(NFr) O (NTo) Nc C (Vmn (Vmx Bctrl (Qini) T A (Extr
   60      63  2 F 0900 1046    60  -330. C      60 
(G  O E (U) UOp (Sht ) M
10        1   1  -330. S
FBAN
(NFr) O (NTo) Nc C (Vmn (Vmx Bctrl (Qini) T A (Extr
   60      64  3 F 0900 1046    60  -330. C      60 
(G  O E (U) UOp (Sht ) M
10        1   1  -330. S
FBAN
(NFr) O (NTo) Nc C (Vmn (Vmx Bctrl (Qini) T A (Extr
   60      62  1 F 0900 1046    62  -150. C      62 
(G  O E (U) UOp (Sht ) M
10        1   1  -150. S
FBAN
(NFr) O (NTo) Nc C (Vmn (Vmx Bctrl (Qini) T A (Extr
   60      63  2 F 0900 1046    63  -150. C      63 
(G  O E (U) UOp (Sht ) M
10        1   1  -150. S
FBAN
(NFr) O (NTo) Nc C (Vmn (Vmx Bctrl (Qini) T A (Extr
   60      64  3 F 0900 1046    64  -150. C      64 
(G  O E (U) UOp (Sht ) M
10        1   1  -150. S
FBAN
(NFr) O (NTo) Nc C (Vmn (Vmx Bctrl (Qini) T A (Extr
   65            D 0900 1046    65  -330. C         
(G  O E (U) UOp (Sht ) M
10        1   1  -330. S
FBAN
(NFr) O (NTo) Nc C (Vmn (Vmx Bctrl (Qini) T A (Extr
   67            D 0400 1900    67  -540. C         
(G  O E (U) UOp (Sht ) M
10        3   3  -180. S
FBAN
(NFr) O (NTo) Nc C (Vmn (Vmx Bctrl (Qini) T A (Extr
   72      69  1 F 0900 1046    69  -330. C      69 
(G  O E (U) UOp (Sht ) M
10        1   1  -330. S
FBAN
(NFr) O (NTo) Nc C (Vmn (Vmx Bctrl (Qini) T A (Extr
   72      70  2 F 0900 1046    70  -330. C      70 
(G  O E (U) UOp (Sht ) M
10        1   1  -330. S
FBAN
(NFr) O (NTo) Nc C (Vmn (Vmx Bctrl (Qini) T A (Extr
   72      71  3 F 0900 1046    71  -330. C      71 
(G  O E (U) UOp (Sht ) M
10        1   1  -330. S
FBAN
(NFr) O (NTo) Nc C (Vmn (Vmx Bctrl (Qini) T A (Extr
   72            D 0900 1046    72 -987.6 C         
(G  O E (U) UOp (Sht ) M
10        3   3 -329.2 S
FBAN
(NFr) O (NTo) Nc C (Vmn (Vmx Bctrl (Qini) T A (Extr
   72      69  1 F 0900 1046    72  -330. C      72 
(G  O E (U) UOp (Sht ) M
10        1   1  -330. S
FBAN
(NFr) O (NTo) Nc C (Vmn (Vmx Bctrl (Qini) T A (Extr
   72      70  2 F 0900 1046    72  -330. C      72 
(G  O E (U) UOp (Sht ) M
10        1   1  -330. S
FBAN
(NFr) O (NTo) Nc C (Vmn (Vmx Bctrl (Qini) T A (Extr
   72      71  3 F 0900 1046    72  -330. C      72 
(G  O E (U) UOp (Sht ) M
10        1   1  -330. S
FBAN
(NFr) O (NTo) Nc C (Vmn (Vmx Bctrl (Qini) T A (Extr
   76      73  1 F 0900 1046    76  -330. C      76 
(G  O E (U) UOp (Sht ) M
10        1   1  -330. S
FBAN
(NFr) O (NTo) Nc C (Vmn (Vmx Bctrl (Qini) T A (Extr
   76      74  2 F 0900 1046    76  -330. C      76 
(G  O E (U) UOp (Sht ) M
10        1   1  -330. S
FBAN
(NFr) O (NTo) Nc C (Vmn (Vmx Bctrl (Qini) T A (Extr
   76      75  3 F 0900 1046    76  -330. C      76 
(G  O E (U) UOp (Sht ) M
10        1   1  -330. S
FBAN
(NFr) O (NTo) Nc C (Vmn (Vmx Bctrl (Qini) T A (Extr
   79            D 0400 1900    79  -180. C         
(G  O E (U) UOp (Sht ) M
10        2   1  -180. S
FBAN
(NFr) O (NTo) Nc C (Vmn (Vmx Bctrl (Qini) T A (Extr
   85            F 1000 1100    85   980. C         
(G  O E (U) UOp (Sht ) M
10        3   1   280. S
20        2   2   350. S
FBAN
(NFr) O (NTo) Nc C (Vmn (Vmx Bctrl (Qini) T A (Extr
   86            F 0950 1050    86 1329.6 C         
(G  O E (U) UOp (Sht ) M
10        2   2    59. S
20        3   2  220.8 S
30        4   2   237. S
40        1   0  279.8 S
50        2   0   294. S
60        2   1   296. S
FBAN
(NFr) O (NTo) Nc C (Vmn (Vmx Bctrl (Qini) T A (Extr
   87            F 1000 1100    87        C         
(G  O E (U) UOp (Sht ) M
10    D   1   1  -200. S
FBAN
(NFr) O (NTo) Nc C (Vmn (Vmx Bctrl (Qini) T A (Extr
   90            D 0950 1050    90   -60. C         
(G  O E (U) UOp (Sht ) M
10        1   1   -60. S
FBAN
(NFr) O (NTo) Nc C (Vmn (Vmx Bctrl (Qini) T A (Extr
  235      92  1 F 1000 1100    92   -73. C      92 
(G  O E (U) UOp (Sht ) M
10        1   1   -73. S
FBAN
(NFr) O (NTo) Nc C (Vmn (Vmx Bctrl (Qini) T A (Extr
  235      93  2 F 1000 1100    93  -136. C      93 
(G  O E (U) UOp (Sht ) M
10        1   1  -136. S
FBAN
(NFr) O (NTo) Nc C (Vmn (Vmx Bctrl (Qini) T A (Extr
  235      94  3 F 1000 1100    94  -136. C      94 
(G  O E (U) UOp (Sht ) M
10        1   1  -136. S
FBAN
(NFr) O (NTo) Nc C (Vmn (Vmx Bctrl (Qini) T A (Extr
   99     101  1 D 1000 1100    99  -90.7 C      99 
(G  O E (U) UOp (Sht ) M
10        1   1  -90.7 S
FBAN
(NFr) O (NTo) Nc C (Vmn (Vmx Bctrl (Qini) T A (Extr
  210     100  1 D 1000 1100   100  -100. C     100 
(G  O E (U) UOp (Sht ) M
10        1   1  -100. S
FBAN
(NFr) O (NTo) Nc C (Vmn (Vmx Bctrl (Qini) T A (Extr
  100    4598  2 D 1000 1100   100        C     100 
(G  O E (U) UOp (Sht ) M
10        1   0  -100. S
FBAN
(NFr) O (NTo) Nc C (Vmn (Vmx Bctrl (Qini) T A (Extr
  100    4598  3 D 1000 1100   100        C     100 
(G  O E (U) UOp (Sht ) M
10        1   0  -100. S
FBAN
(NFr) O (NTo) Nc C (Vmn (Vmx Bctrl (Qini) T A (Extr
   99     101  1 F 1000 1100   101 -73.47 C     101 
(G  O E (U) UOp (Sht ) M
10        1   1 -73.47 S
FBAN
(NFr) O (NTo) Nc C (Vmn (Vmx Bctrl (Qini) T A (Extr
  101     102  1 F 1000 1100   101   -73. C     101 
(G  O E (U) UOp (Sht ) M
10        1   1   -73. S
FBAN
...